
*** ChampSim Multicore Out-of-Order Simulator ***

Warmup Instructions: 2000000
Simulation Instructions: 3000000
Number of CPUs: 1
LLC sets: 2048
LLC ways: 32
Off-chip DRAM Size: 4096 MB Channels: 1 Width: 64-bit Data Rate: 3200 MT/sn
CPU 0 runs ../traces//bfs-3.trace.gznCPU 0 Bimodal branch predictor
Initialize Hawkeye state

Warmup complete CPU 0 instructions: 2000002 cycles: 591250 (Simulation time: 0 hr 0 min 5 sec) 

Caught signal: 2
